@<TRIPOS>MOLECULE
12496332
 22 26 0 0 0
SMALL
GASTEIGER

@<TRIPOS>ATOM
      1 C          -1.5437   -0.7546   -0.0006 C.3     1  UNL1       -0.0309
      2 C          -1.5436    0.7548    0.0006 C.3     1  UNL1       -0.0309
      3 C          -0.4478    0.7766   -1.0757 C.3     1  UNL1       -0.0312
      4 C          -0.4477   -0.7750   -1.0767 C.3     1  UNL1       -0.0312
      5 C          -0.4477    0.7751    1.0767 C.3     1  UNL1       -0.0312
      6 C          -0.4480   -0.7766    1.0757 C.3     1  UNL1       -0.0312
      7 C           0.5169    1.3444    0.0009 C.3     1  UNL1       -0.0343
      8 C           0.5167   -1.3445   -0.0007 C.3     1  UNL1       -0.0343
      9 C           1.9224   -0.7654    0.0009 C.3     1  UNL1       -0.0494
     10 C           1.9226    0.7652   -0.0009 C.3     1  UNL1       -0.0494
     11 H          -2.4114   -1.4027   -0.0012 H       1  UNL1        0.0309
     12 H          -2.4113    1.4030    0.0011 H       1  UNL1        0.0309
     13 H          -0.6348    1.3175   -2.0013 H       1  UNL1        0.0309
     14 H          -0.6347    1.3147    2.0030 H       1  UNL1        0.0309
     15 H          -0.6346   -1.3147   -2.0030 H       1  UNL1        0.0309
     16 H          -0.6352   -1.3174    2.0012 H       1  UNL1        0.0309
     17 H           0.5388    2.4427    0.0016 H       1  UNL1        0.0306
     18 H           0.5384   -2.4427   -0.0015 H       1  UNL1        0.0306
     19 H           2.4747   -1.1298   -0.8736 H       1  UNL1        0.0268
     20 H           2.4715   -1.1278    0.8783 H       1  UNL1        0.0268
     21 H           2.4750    1.1295    0.8735 H       1  UNL1        0.0268
     22 H           2.4717    1.1276   -0.8784 H       1  UNL1        0.0268
@<TRIPOS>BOND
     1     1     2    1
     2     1     4    1
     3     1     6    1
     4     1    11    1
     5     2     3    1
     6     2     5    1
     7     2    12    1
     8     3     4    1
     9     3     7    1
    10     3    13    1
    11     4     8    1
    12     4    15    1
    13     5     6    1
    14     5     7    1
    15     5    14    1
    16     6     8    1
    17     6    16    1
    18     7    10    1
    19     7    17    1
    20     8     9    1
    21     8    18    1
    22     9    10    1
    23     9    19    1
    24     9    20    1
    25    10    21    1
    26    10    22    1
