@<TRIPOS>MOLECULE
241
 12 12 0 0 0
SMALL
GASTEIGER

@<TRIPOS>ATOM
      1 C          -1.2131   -0.6884    0.0000 C.ar    1  UNL1       -0.0618
      2 C          -1.2028    0.7064    0.0001 C.ar    1  UNL1       -0.0618
      3 C          -0.0103   -1.3948    0.0000 C.ar    1  UNL1       -0.0618
      4 C           0.0104    1.3948   -0.0001 C.ar    1  UNL1       -0.0618
      5 C           1.2028   -0.7063    0.0000 C.ar    1  UNL1       -0.0618
      6 C           1.2131    0.6884    0.0000 C.ar    1  UNL1       -0.0618
      7 H          -2.1577   -1.2244    0.0000 H       1  UNL1        0.0618
      8 H          -2.1393    1.2564    0.0001 H       1  UNL1        0.0618
      9 H          -0.0184   -2.4809   -0.0001 H       1  UNL1        0.0618
     10 H           0.0184    2.4808    0.0000 H       1  UNL1        0.0618
     11 H           2.1394   -1.2563    0.0001 H       1  UNL1        0.0618
     12 H           2.1577    1.2245    0.0000 H       1  UNL1        0.0618
@<TRIPOS>BOND
     1     1     2   ar
     2     1     3   ar
     3     1     7    1
     4     2     4   ar
     5     2     8    1
     6     3     5   ar
     7     3     9    1
     8     4     6   ar
     9     4    10    1
    10     5     6   ar
    11     5    11    1
    12     6    12    1
