@<TRIPOS>MOLECULE
2519
 24 25 0 0 0
SMALL
GASTEIGER

@<TRIPOS>ATOM
      1 O           0.4700    2.5688    0.0006 O.2     1  UNL1       -0.2652
      2 O          -3.1271   -0.4436   -0.0003 O.2     1  UNL1       -0.2462
      3 N          -0.9686   -1.3125    0.0000 N.ar    1  UNL1       -0.2796
      4 N           2.2182    0.1412   -0.0003 N.ar    1  UNL1       -0.3277
      5 N          -1.3477    1.0797   -0.0001 N.ar    1  UNL1       -0.2622
      6 N           1.4119   -1.9372    0.0002 N.ar    1  UNL1       -0.2177
      7 C           0.8579    0.2592   -0.0008 C.ar    1  UNL1        0.1512
      8 C           0.3897   -1.0264   -0.0004 C.ar    1  UNL1        0.1678
      9 C           0.0307    1.4220   -0.0006 C.ar    1  UNL1        0.2822
     10 C          -1.9061   -0.2495   -0.0004 C.ar    1  UNL1        0.3331
     11 C           2.5032   -1.1998    0.0003 C.ar    1  UNL1        0.0986
     12 C          -1.4276   -2.6960    0.0008 C.3     1  UNL1        0.0181
     13 C           3.1926    1.2061    0.0003 C.3     1  UNL1        0.0135
     14 C          -2.2969    2.1881    0.0007 C.3     1  UNL1        0.0196
     15 H           3.5163   -1.5787    0.0008 H       1  UNL1        0.1029
     16 H          -1.0451   -3.1973   -0.8937 H       1  UNL1        0.0458
     17 H          -2.5186   -2.7596    0.0011 H       1  UNL1        0.0458
     18 H          -1.0447   -3.1963    0.8957 H       1  UNL1        0.0458
     19 H           4.1992    0.7801    0.0002 H       1  UNL1        0.0456
     20 H           3.0468    1.8092   -0.8992 H       1  UNL1        0.0456
     21 H           3.0466    1.8083    0.9004 H       1  UNL1        0.0456
     22 H          -1.8087    3.1651   -0.0003 H       1  UNL1        0.0458
     23 H          -2.9322    2.1027    0.8881 H       1  UNL1        0.0458
     24 H          -2.9346    2.1021   -0.8849 H       1  UNL1        0.0458
@<TRIPOS>BOND
     1     1     9    2
     2     2    10    2
     3     3     8   ar
     4     3    10   ar
     5     3    12    1
     6     4     7   ar
     7     4    11   ar
     8     4    13    1
     9     5     9   ar
    10     5    10   ar
    11     5    14    1
    12     6     8   ar
    13     6    11   ar
    14     7     8   ar
    15     7     9   ar
    16    11    15    1
    17    12    16    1
    18    12    17    1
    19    12    18    1
    20    13    19    1
    21    13    20    1
    22    13    21    1
    23    14    22    1
    24    14    23    1
    25    14    24    1
