@<TRIPOS>MOLECULE
136090
 16 20 0 0 0
SMALL
GASTEIGER

@<TRIPOS>ATOM
      1 C          -0.9520    0.6596   -0.6532 C.3     1  UNL1       -0.0309
      2 C          -0.9173    0.4251    0.8637 C.3     1  UNL1       -0.0309
      3 C          -0.5693   -0.8085   -0.8890 C.3     1  UNL1       -0.0309
      4 C          -0.5346   -1.0431    0.6279 C.3     1  UNL1       -0.0309
      5 C           0.5346    1.0431   -0.6279 C.3     1  UNL1       -0.0309
      6 C           0.5692    0.8084    0.8889 C.3     1  UNL1       -0.0309
      7 C           0.9173   -0.4251   -0.8636 C.3     1  UNL1       -0.0309
      8 C           0.9519   -0.6596    0.6532 C.3     1  UNL1       -0.0309
      9 H          -1.7268    1.1966   -1.1850 H       1  UNL1        0.0309
     10 H          -1.6639    0.7712    1.5668 H       1  UNL1        0.0309
     11 H          -1.0326   -1.4666   -1.6127 H       1  UNL1        0.0309
     12 H           0.9698    1.8921   -1.1391 H       1  UNL1        0.0309
     13 H           1.0326    1.4665    1.6126 H       1  UNL1        0.0309
     14 H          -0.9698   -1.8921    1.1390 H       1  UNL1        0.0309
     15 H           1.7268   -1.1966    1.1850 H       1  UNL1        0.0309
     16 H           1.6639   -0.7712   -1.5667 H       1  UNL1        0.0309
@<TRIPOS>BOND
     1     1     2    1
     2     1     3    1
     3     1     5    1
     4     1     9    1
     5     2     4    1
     6     2     6    1
     7     2    10    1
     8     3     4    1
     9     3     7    1
    10     3    11    1
    11     4     8    1
    12     4    14    1
    13     5     6    1
    14     5     7    1
    15     5    12    1
    16     6     8    1
    17     6    13    1
    18     7     8    1
    19     7    16    1
    20     8    15    1
