@<TRIPOS>MOLECULE
cubic_f_1
    80    90     1     0     0
SMALL
NO_CHARGES
****
Generated from the CSD

@<TRIPOS>ATOM
     1 Fe1     27.4944  18.8666  27.4944   Fe        1 RES1   0.0000
     2 N1      25.8787  20.4823  25.8787   N.3       1 RES1   0.0000
     3 N2      28.7021  20.1392  26.2171   N.2       1 RES1   0.0000
     4 N3      29.3141  19.4438  28.6047   N.2       1 RES1   0.0000
     5 N4      31.1592  19.7683  29.8055   N.pl3     1 RES1   0.0000
     6 N5      33.6998  19.7405  33.0971   N.ar      1 RES1   0.0000
     7 C1      26.8847  21.2843  25.1926   C.3       1 RES1   0.0000
     8 H1A     26.4685  21.6639  24.3793   H         1 RES1   0.0000
     9 H1B     27.1200  22.0435  25.7834   H         1 RES1   0.0000
    10 C2      28.1179  20.6214  24.8031   C.3       1 RES1   0.0000
    11 H2A     28.7348  21.2486  24.3503   H         1 RES1   0.0000
    12 H2B     27.9374  19.8528  24.2029   H         1 RES1   0.0000
    13 C3      29.9168  20.5982  26.5139   C.2       1 RES1   0.0000
    14 H3      30.4614  21.1168  25.9368   H         1 RES1   0.0000
    15 C4      30.2830  20.1717  27.8954   C.2       1 RES1   0.0000
    16 C5      31.3308  20.4406  28.5908   C.2       1 RES1   0.0000
    17 H5      32.0656  20.9813  28.3296   H         1 RES1   0.0000
    18 C6      29.9678  19.2027  29.6896   C.2       1 RES1   0.0000
    19 H6      29.6081  18.6512  30.3766   H         1 RES1   0.0000
    20 C9      32.0633  19.7405  30.9042   C.ar      1 RES1   0.0000
    21 C10     32.9024  20.7048  31.1175   C.ar      1 RES1   0.0000
    22 H10     32.9501  21.4091  30.4797   H         1 RES1   0.0000
    23 C7      32.9256  18.7113  32.7772   C.ar      1 RES1   0.0000
    24 H7      32.9392  17.9423  33.3362   H         1 RES1   0.0000
    25 C8      32.1143  18.7113  31.6970   C.ar      1 RES1   0.0000
    26 H8      31.5734  17.9508  31.5133   H         1 RES1   0.0000
    27 C11     33.7508  20.7697  32.2441   C.ar      1 RES1   0.0000
    28 H11     34.3326  21.5099  32.3892   H         1 RES1   0.0000
    29 N2      26.2171  17.6589  26.2218   N.2       1 RES1   0.0000
    30 N3      28.6047  17.0469  26.9172   N.2       1 RES1   0.0000
    31 N4      29.8055  15.2018  26.5927   N.pl3     1 RES1   0.0000
    32 N5      33.0971  12.6612  26.6205   N.ar      1 RES1   0.0000
    33 C1      25.1926  19.4763  25.0767   C.3       1 RES1   0.0000
    34 H1A     24.3793  19.8925  24.6971   H         1 RES1   0.0000
    35 H1B     25.7834  19.2410  24.3175   H         1 RES1   0.0000
    36 C2      24.8031  18.2431  25.7396   C.3       1 RES1   0.0000
    37 H2A     24.3503  17.6262  25.1124   H         1 RES1   0.0000
    38 H2B     24.2029  18.4236  26.5082   H         1 RES1   0.0000
    39 C3      26.5139  16.4442  25.7628   C.2       1 RES1   0.0000
    40 H3      25.9368  15.8996  25.2442   H         1 RES1   0.0000
    41 C4      27.8954  16.0780  26.1893   C.2       1 RES1   0.0000
    42 C5      28.5908  15.0302  25.9204   C.2       1 RES1   0.0000
    43 H5      28.3296  14.2954  25.3797   H         1 RES1   0.0000
    44 C6      29.6896  16.3932  27.1583   C.2       1 RES1   0.0000
    45 H6      30.3766  16.7529  27.7098   H         1 RES1   0.0000
    46 C9      30.9042  14.2977  26.6205   C.ar      1 RES1   0.0000
    47 C10     31.1175  13.4586  25.6562   C.ar      1 RES1   0.0000
    48 H10     30.4797  13.4109  24.9519   H         1 RES1   0.0000
    49 C7      32.7772  13.4354  27.6497   C.ar      1 RES1   0.0000
    50 H7      33.3362  13.4218  28.4187   H         1 RES1   0.0000
    51 C8      31.6970  14.2467  27.6497   C.ar      1 RES1   0.0000
    52 H8      31.5133  14.7876  28.4102   H         1 RES1   0.0000
    53 C11     32.2441  12.6102  25.5913   C.ar      1 RES1   0.0000
    54 H11     32.3892  12.0284  24.8511   H         1 RES1   0.0000
    55 N2      26.2218  20.1439  28.7021   N.2       1 RES1   0.0000
    56 N3      26.9172  17.7563  29.3141   N.2       1 RES1   0.0000
    57 N4      26.5927  16.5555  31.1592   N.pl3     1 RES1   0.0000
    58 N5      26.6205  13.2639  33.6998   N.ar      1 RES1   0.0000
    59 C1      25.0767  21.1684  26.8847   C.3       1 RES1   0.0000
    60 H1A     24.6971  21.9817  26.4685   H         1 RES1   0.0000
    61 H1B     24.3175  20.5776  27.1200   H         1 RES1   0.0000
    62 C2      25.7396  21.5579  28.1179   C.3       1 RES1   0.0000
    63 H2A     25.1124  22.0107  28.7348   H         1 RES1   0.0000
    64 H2B     26.5082  22.1581  27.9374   H         1 RES1   0.0000
    65 C3      25.7628  19.8471  29.9168   C.2       1 RES1   0.0000
    66 H3      25.2442  20.4242  30.4614   H         1 RES1   0.0000
    67 C4      26.1893  18.4656  30.2830   C.2       1 RES1   0.0000
    68 C5      25.9204  17.7702  31.3308   C.2       1 RES1   0.0000
    69 H5      25.3797  18.0314  32.0656   H         1 RES1   0.0000
    70 C6      27.1583  16.6714  29.9678   C.2       1 RES1   0.0000
    71 H6      27.7098  15.9844  29.6081   H         1 RES1   0.0000
    72 C9      26.6205  15.4568  32.0633   C.ar      1 RES1   0.0000
    73 C10     25.6562  15.2435  32.9024   C.ar      1 RES1   0.0000
    74 H10     24.9519  15.8813  32.9501   H         1 RES1   0.0000
    75 C7      27.6497  13.5838  32.9256   C.ar      1 RES1   0.0000
    76 H7      28.4187  13.0248  32.9392   H         1 RES1   0.0000
    77 C8      27.6497  14.6640  32.1143   C.ar      1 RES1   0.0000
    78 H8      28.4102  14.8477  31.5734   H         1 RES1   0.0000
    79 C11     25.5913  14.1169  33.7508   C.ar      1 RES1   0.0000
    80 H11     24.8511  13.9718  34.3326   H         1 RES1   0.0000
@<TRIPOS>BOND
     1     1     3    1
     2     1     4    1
     3     1    29    1
     4     1    30    1
     5     1    55    1
     6     1    56    1
     7     2     7    1
     8     2    33    1
     9     2    59    1
    10     3    10    1
    11     3    13    2
    12     4    15    1
    13     4    18    2
    14     5    16    1
    15     5    18    1
    16     5    20    1
    17     6    23   ar
    18     6    27   ar
    19     7     8    1
    20     7     9    1
    21     7    10    1
    22    10    11    1
    23    10    12    1
    24    13    14    1
    25    13    15    1
    26    15    16    2
    27    16    17    1
    28    18    19    1
    29    20    21   ar
    30    20    25   ar
    31    21    22    1
    32    21    27   ar
    33    23    24    1
    34    23    25   ar
    35    25    26    1
    36    27    28    1
    37    29    36    1
    38    29    39    2
    39    30    41    1
    40    30    44    2
    41    31    42    1
    42    31    44    1
    43    31    46    1
    44    32    49   ar
    45    32    53   ar
    46    33    34    1
    47    33    35    1
    48    33    36    1
    49    36    37    1
    50    36    38    1
    51    39    40    1
    52    39    41    1
    53    41    42    2
    54    42    43    1
    55    44    45    1
    56    46    47   ar
    57    46    51   ar
    58    47    48    1
    59    47    53   ar
    60    49    50    1
    61    49    51   ar
    62    51    52    1
    63    53    54    1
    64    55    62    1
    65    55    65    2
    66    56    67    1
    67    56    70    2
    68    57    68    1
    69    57    70    1
    70    57    72    1
    71    58    75   ar
    72    58    79   ar
    73    59    60    1
    74    59    61    1
    75    59    62    1
    76    62    63    1
    77    62    64    1
    78    65    66    1
    79    65    67    1
    80    67    68    2
    81    68    69    1
    82    70    71    1
    83    72    73   ar
    84    72    77   ar
    85    73    74    1
    86    73    79   ar
    87    75    76    1
    88    75    77   ar
    89    77    78    1
    90    79    80    1
@<TRIPOS>SUBSTRUCTURE
     1 RES1        1 GROUP             0 ****  ****    0  
@<TRIPOS>CRYSIN
   46.3610   46.3610   46.3610   90.0000   90.0000   90.0000   226     1
