@<TRIPOS>MOLECULE
60C
 60 90 0 0 0
SMALL
GASTEIGER

@<TRIPOS>ATOM
      1 C           0.9440    0.2860    3.2390 C.ar    1  UNL1        0.0000
      2 C           2.2290    0.4540    2.7040 C.ar    1  UNL1        0.0000
      3 C           2.6120   -0.8090    2.2080 C.ar    1  UNL1        0.0000
      4 C          -0.7710   -1.4370    3.0160 C.ar    1  UNL1        0.0000
      5 C          -1.8030   -0.4780    3.0070 C.ar    1  UNL1        0.0000
      6 C          -1.4470    0.8890    3.1060 C.ar    1  UNL1        0.0000
      7 C          -0.0910    1.2340    3.2080 C.ar    1  UNL1        0.0000
      8 C           2.4870    1.6420    1.9590 C.ar    1  UNL1        0.0000
      9 C           1.4190    2.5490    1.8610 C.ar    1  UNL1        0.0000
     10 C           0.1450    2.4320    2.4610 C.ar    1  UNL1        0.0000
     11 C           3.2620   -0.8490    0.9450 C.ar    1  UNL1        0.0000
     12 C           3.5980    0.3010    0.2010 C.ar    1  UNL1        0.0000
     13 C          -1.1070   -2.5250    2.1650 C.ar    1  UNL1        0.0000
     14 C           1.9650   -2.9040    0.4050 C.ar    1  UNL1        0.0000
     15 C           2.9150   -1.9110    0.0630 C.ar    1  UNL1        0.0000
     16 C          -2.7550   -0.9290    2.0560 C.ar    1  UNL1        0.0000
     17 C          -2.3340   -2.1840    1.5540 C.ar    1  UNL1        0.0000
     18 C          -1.0800    2.8570    1.9170 C.ar    1  UNL1        0.0000
     19 C          -2.0090    1.8520    2.2210 C.ar    1  UNL1        0.0000
     20 C           1.0290   -3.3550   -0.5570 C.ar    1  UNL1        0.0000
     21 C          -0.2120   -3.4220    0.0910 C.ar    1  UNL1        0.0000
     22 C           3.4070   -0.0200   -1.1690 C.ar    1  UNL1        0.0000
     23 C           2.9600   -1.3560   -1.2450 C.ar    1  UNL1        0.0000
     24 C          -2.9210    1.3530    1.2560 C.ar    1  UNL1        0.0000
     25 C          -3.3440    0.0180    1.1650 C.ar    1  UNL1        0.0000
     26 C          -1.4460   -3.0790   -0.5050 C.ar    1  UNL1        0.0000
     27 C          -2.5200   -2.4850    0.1720 C.ar    1  UNL1        0.0000
     28 C           2.0040   -1.8330   -2.1770 C.ar    1  UNL1        0.0000
     29 C           1.0570   -2.8260   -1.8840 C.ar    1  UNL1        0.0000
     30 C           2.3020    2.1670   -1.5320 C.ar    1  UNL1        0.0000
     31 C           2.7540    0.9100   -2.0270 C.ar    1  UNL1        0.0000
     32 C           0.2080    3.4240   -0.0750 C.ar    1  UNL1        0.0000
     33 C          -1.0280    3.3620    0.5830 C.ar    1  UNL1        0.0000
     34 C          -3.5470   -0.2870   -0.2040 C.ar    1  UNL1        0.0000
     35 C          -3.1280   -1.5500   -0.6990 C.ar    1  UNL1        0.0000
     36 C           0.0460    3.1380   -1.4650 C.ar    1  UNL1        0.0000
     37 C           1.1160    2.5250   -2.1630 C.ar    1  UNL1        0.0000
     38 C           1.8000    0.4980   -2.9640 C.ar    1  UNL1        0.0000
     39 C           1.4230   -0.8990   -3.0600 C.ar    1  UNL1        0.0000
     40 C          -0.1560   -2.4350   -2.4720 C.ar    1  UNL1        0.0000
     41 C          -1.4090   -2.5440   -1.8310 C.ar    1  UNL1        0.0000
     42 C           0.0450   -1.2770   -3.2580 C.ar    1  UNL1        0.0000
     43 C           0.7630    1.5020   -3.0760 C.ar    1  UNL1        0.0000
     44 C          -0.0350   -3.1510    1.4820 C.ar    1  UNL1        0.0000
     45 C           1.3260   -2.8310    1.6680 C.ar    1  UNL1        0.0000
     46 C           1.6730   -1.7860    2.5680 C.ar    1  UNL1        0.0000
     47 C           0.5960   -1.0980    3.1540 C.ar    1  UNL1        0.0000
     48 C           3.1680    1.5610    0.7190 C.ar    1  UNL1        0.0000
     49 C           2.5080    2.4430   -0.1560 C.ar    1  UNL1        0.0000
     50 C           1.4320    3.0500    0.5240 C.ar    1  UNL1        0.0000
     51 C          -2.4590   -1.6180   -1.9460 C.ar    1  UNL1        0.0000
     52 C          -0.9970   -0.2750   -3.3660 C.ar    1  UNL1        0.0000
     53 C          -2.2280   -0.4400   -2.7190 C.ar    1  UNL1        0.0000
     54 C          -3.3200    0.8890   -0.9690 C.ar    1  UNL1        0.0000
     55 C          -2.8950    1.8810   -0.0710 C.ar    1  UNL1        0.0000
     56 C          -2.6510    0.8170   -2.2220 C.ar    1  UNL1        0.0000
     57 C          -1.9210    2.8570   -0.3770 C.ar    1  UNL1        0.0000
     58 C          -1.2990    2.8090   -1.6570 C.ar    1  UNL1        0.0000
     59 C          -0.6220    1.1290   -3.2660 C.ar    1  UNL1        0.0000
     60 C          -1.6580    1.7690   -2.5620 C.ar    1  UNL1        0.0000
@<TRIPOS>BOND
     1     1     7   ar
     2     2     1   ar
     3     3    46   ar
     4     3     2   ar
     5     4     5   ar
     6     5     6   ar
     7     7     6   ar
     8     8     9   ar
     9     8     2   ar
    10     9    10   ar
    11    10    18   ar
    12    10     7   ar
    13    11     3   ar
    14    12    11   ar
    15    12    48   ar
    16    13    17   ar
    17    13     4   ar
    18    14    45   ar
    19    15    14   ar
    20    15    11   ar
    21    16     5   ar
    22    17    16   ar
    23    18    19   ar
    24    19     6   ar
    25    20    14   ar
    26    20    21   ar
    27    21    26   ar
    28    21    44   ar
    29    22    12   ar
    30    23    22   ar
    31    23    15   ar
    32    24    19   ar
    33    25    24   ar
    34    25    16   ar
    35    26    27   ar
    36    27    17   ar
    37    28    23   ar
    38    28    29   ar
    39    29    40   ar
    40    29    20   ar
    41    30    37   ar
    42    30    49   ar
    43    31    22   ar
    44    31    30   ar
    45    32    33   ar
    46    33    18   ar
    47    34    25   ar
    48    35    27   ar
    49    35    34   ar
    50    36    58   ar
    51    36    32   ar
    52    37    36   ar
    53    38    31   ar
    54    38    43   ar
    55    39    38   ar
    56    39    28   ar
    57    39    42   ar
    58    40    41   ar
    59    41    51   ar
    60    41    26   ar
    61    42    52   ar
    62    42    40   ar
    63    43    59   ar
    64    43    37   ar
    65    44    13   ar
    66    45    44   ar
    67    45    46   ar
    68    46    47   ar
    69    47     1   ar
    70    47     4   ar
    71    48     8   ar
    72    49    48   ar
    73    49    50   ar
    74    50    32   ar
    75    50     9   ar
    76    51    35   ar
    77    52    59   ar
    78    52    53   ar
    79    53    51   ar
    80    53    56   ar
    81    54    34   ar
    82    54    55   ar
    83    55    24   ar
    84    56    54   ar
    85    57    33   ar
    86    57    55   ar
    87    58    57   ar
    88    59    60   ar
    89    60    56   ar
    90    60    58   ar
