@<TRIPOS>MOLECULE
101427667
 24 32 0 0 0
SMALL
GASTEIGER

@<TRIPOS>ATOM
      1 S          -3.3996    2.2976    0.0000 S.2     1  UNL1       -0.0738
      2 S          -0.7793    4.0285    0.0000 S.2     1  UNL1       -0.0738
      3 S          -4.0285   -0.7793    0.0000 S.2     1  UNL1       -0.0738
      4 S           2.2976    3.3996    0.0000 S.2     1  UNL1       -0.0738
      5 S          -2.2976   -3.3996    0.0000 S.2     1  UNL1       -0.0738
      6 S           4.0285    0.7793    0.0000 S.2     1  UNL1       -0.0738
      7 S           0.7793   -4.0285    0.0000 S.2     1  UNL1       -0.0738
      8 S           3.3996   -2.2976    0.0000 S.2     1  UNL1       -0.0738
      9 C          -0.9835    1.4888    0.0000 C.ar    1  UNL1        0.0141
     10 C          -1.7483    0.3573    0.0000 C.ar    1  UNL1        0.0141
     11 C           0.3573    1.7482    0.0000 C.ar    1  UNL1        0.0141
     12 C          -1.4888   -0.9835    0.0000 C.ar    1  UNL1        0.0141
     13 C           1.4888    0.9835    0.0000 C.ar    1  UNL1        0.0141
     14 C          -0.3573   -1.7482    0.0000 C.ar    1  UNL1        0.0141
     15 C           1.7483   -0.3573    0.0000 C.ar    1  UNL1        0.0141
     16 C           0.9835   -1.4888    0.0000 C.ar    1  UNL1        0.0141
     17 C          -1.7300    2.6189    0.0000 C.ar    1  UNL1        0.0597
     18 C          -3.0751    0.6285    0.0000 C.ar    1  UNL1        0.0597
     19 C           0.6286    3.0751    0.0000 C.ar    1  UNL1        0.0597
     20 C          -2.6189   -1.7300    0.0000 C.ar    1  UNL1        0.0597
     21 C           2.6189    1.7300    0.0000 C.ar    1  UNL1        0.0597
     22 C          -0.6286   -3.0751    0.0000 C.ar    1  UNL1        0.0597
     23 C           3.0751   -0.6285    0.0000 C.ar    1  UNL1        0.0597
     24 C           1.7300   -2.6189    0.0000 C.ar    1  UNL1        0.0597
@<TRIPOS>BOND
     1     1    17   ar
     2     1    18   ar
     3     2    17   ar
     4     2    19   ar
     5     3    18   ar
     6     3    20   ar
     7     4    19   ar
     8     4    21   ar
     9     5    20   ar
    10     5    22   ar
    11     6    21   ar
    12     6    23   ar
    13     7    22   ar
    14     7    24   ar
    15     8    23   ar
    16     8    24   ar
    17     9    10   ar
    18     9    11   ar
    19     9    17   ar
    20    10    12   ar
    21    10    18   ar
    22    11    13   ar
    23    11    19   ar
    24    12    14   ar
    25    12    20   ar
    26    13    15   ar
    27    13    21   ar
    28    14    16   ar
    29    14    22   ar
    30    15    16   ar
    31    15    23   ar
    32    16    24   ar
